@<TRIPOS>MOLECULE
6uuo.A
49 52 1 0 0 
SMALL
USER_CHARGES


@<TRIPOS>ATOM
  1 C11      3.5395    20.5508    39.1755 C.ar  1 QH1  -0.0230 
  2 C13      2.1865    20.1689    41.3174 C.2   1 QH1  -0.3016 
  3 H13      2.1307    21.2113    41.5942 H     1 QH1   0.1500 
  4 C14      1.6145    19.1365    42.0727 C.2   1 QH1  -0.0540 
  5 C15      1.9395    17.8863    41.3313 C.ar  1 QH1   0.2560 
  6 C01      0.9643    26.2326    35.0447 C.3   1 QH1   0.0000 
  7 H011     1.2707    27.1686    35.5116 H     1 QH1   0.0000 
  8 H012     0.0622    25.8619    35.5314 H     1 QH1   0.0000 
  9 H013     0.7626    26.4031    33.9871 H     1 QH1   0.0000 
 10 C02      2.0877    25.1960    35.1908 C.3   1 QH1   0.0000 
 11 H021     2.2775    25.0622    36.2558 H     1 QH1   0.0000 
 12 H022     2.9778    25.6034    34.7115 H     1 QH1   0.0000 
 13 C03      1.8281    23.8153    34.5893 C.3   1 QH1   0.1052 
 14 H031     1.3593    23.9623    33.6163 H     1 QH1   0.0000 
 15 H032     1.1370    23.2922    35.2503 H     1 QH1   0.0000 
 16 C08      3.8825    21.4061    36.8017 C.ar  1 QH1   0.1990 
 17 C09      3.2551    20.6160    37.7942 C.ar  1 QH1   0.1900 
 18 C16      2.6941    18.2692    40.1665 C.ar  1 QH1  -0.1516 
 19 C17      3.1125    17.2244    39.3134 C.ar  1 QH1  -0.1500 
 20 H17      3.6837    17.4523    38.4256 H     1 QH1   0.1500 
 21 C18      2.7914    15.8962    39.6116 C.ar  1 QH1  -0.1500 
 22 H18      3.1203    15.1144    38.9430 H     1 QH1   0.1500 
 23 C19      2.0344    15.5407    40.7851 C.ar  1 QH1   0.4100 
 24 C32      0.8446    19.2958    43.3450 C.ar  1 QH1   0.0540 
 25 C33      0.5535    20.5243    43.9913 C.ar  1 QH1   0.1600 
 26 H33      0.9229    21.4253    43.5243 H     1 QH1   0.1500 
 27 C35     -0.6142    19.5282    45.7308 C.ar  1 QH1   0.4700 
 28 H35     -1.1749    19.6179    46.6494 H     1 QH1   0.1500 
 29 C37      0.2967    18.2066    44.0674 C.ar  1 QH1   0.1600 
 30 H37      0.4586    17.2197    43.6598 H     1 QH1   0.1500 
 31 C38      4.6018    21.4097    39.5221 C.ar  1 QH1   0.1900 
 32 C40      5.2917    22.2351    38.6241 C.ar  1 QH1  -0.1500 
 33 H40      6.0963    22.8684    38.9676 H     1 QH1   0.1500 
 34 C41      4.9219    22.2251    37.2790 C.ar  1 QH1  -0.1500 
 35 H41      5.4481    22.8638    36.5849 H     1 QH1   0.1500 
 36 F10      2.2420    19.8228    37.3610 F     1 QH1  -0.1900 
 37 F39      4.9922    21.4497    40.8149 F     1 QH1  -0.1900 
 38 N07      3.5068    21.4148    35.4219 N.pl3 1 QH1  -0.7570 
 39 H07      3.3394    20.5030    35.0209 H     1 QH1   0.4200 
 40 N12      2.8487    19.7010    40.1471 N.pl3 1 QH1   0.3262 
 41 N20      1.6258    16.5650    41.6209 N.ar  1 QH1  -0.5660 
 42 N21      1.6926    14.1344    41.1050 N.pl3 1 QH1  -0.9000 
 43 H211     1.1595    13.9208    41.9359 H     1 QH1   0.4000 
 44 H212     1.9928    13.3898    40.4923 H     1 QH1   0.4000 
 45 N34     -0.1490    20.6688    45.1460 N.ar  1 QH1  -0.6200 
 46 N36     -0.4113    18.2847    45.2214 N.ar  1 QH1  -0.6200 
 47 O05      3.1827    22.1282    32.8250 O.3   1 QH1  -0.6500 
 48 O06      4.5923    23.7237    34.2331 O.3   1 QH1  -0.6500 
 49 S04      3.2962    22.7269    34.3426 S.o   1 QH1   1.3328 
@<TRIPOS>BOND
  1   1  17  ar  
  2   1  31  ar  
  3   1  40  1   
  4   2   3  1   
  5   2   4  2   
  6   2  40  1   
  7   4   5  1   
  8   4  24  1   
  9   5  18  ar  
 10   5  41  ar  
 11   6   7  1   
 12   6   8  1   
 13   6   9  1   
 14   6  10  1   
 15  10  11  1   
 16  10  12  1   
 17  10  13  1   
 18  13  14  1   
 19  13  15  1   
 20  13  49  1   
 21  16  17  ar  
 22  16  34  ar  
 23  16  38  1   
 24  17  36  1   
 25  18  19  ar  
 26  18  40  1   
 27  19  20  1   
 28  19  21  ar  
 29  21  22  1   
 30  21  23  ar  
 31  23  41  ar  
 32  23  42  1   
 33  24  25  ar  
 34  24  29  ar  
 35  25  26  1   
 36  25  45  ar  
 37  27  28  1   
 38  27  45  ar  
 39  27  46  ar  
 40  29  30  1   
 41  29  46  ar  
 42  31  32  ar  
 43  31  37  1   
 44  32  33  1   
 45  32  34  ar  
 46  34  35  1   
 47  38  39  1   
 48  38  49  1   
 49  42  43  1   
 50  42  44  1   
 51  47  49  1   
 52  48  49  1   
@<TRIPOS>SUBSTRUCTURE
  1 QH1  40 GROUP 4 A **** 0

# MOE 2014.09 (io_trps.svl 2012.10)
