@<TRIPOS>MOLECULE
3sxr.A
5 4 1 0 0 
SMALL
USER_CHARGES


@<TRIPOS>ATOM
  1 S      -20.5735     3.0917    34.3092 S.o2  1 SO4   0.0000 
  2 O1     -21.8898     3.3139    33.6206 O.co2 1 SO4  -0.5000 
  3 O2     -19.9388     4.4065    34.5976 O.co2 1 SO4  -0.5000 
  4 O3     -20.7950     2.4062    35.6161 O.co2 1 SO4  -0.5000 
  5 O4     -19.6613     2.2779    33.4657 O.co2 1 SO4  -0.5000 
@<TRIPOS>BOND
  1   1   2  ar  
  2   1   3  ar  
  3   1   4  ar  
  4   1   5  ar  
@<TRIPOS>SUBSTRUCTURE
  1 SO4   1 GROUP 4 A **** 0

# MOE 2012.10 (io_trps.svl 2012.10)
