@<TRIPOS>MOLECULE
3sxr.A
60 63 1 0 0 
SMALL
USER_CHARGES


@<TRIPOS>ATOM
  1 C1       0.1415    20.7862    43.2941 C.2   1 Q1N1   0.0772 
  2 H1       0.1800    21.7865    42.8889 H     1 Q1N1   0.1500 
  3 C2       0.9097    19.7598    42.8211 C.2   1 Q1N1  -0.0450 
  4 C3       1.9548    19.6464    41.7842 C.2   1 Q1N1   0.7150 
  5 N6      -4.9919    13.8281    50.1034 N.4   1 Q1N1  -0.9590 
  6 H6      -4.4296    13.7912    50.9417 H     1 Q1N1   0.4500 
  7 C7       4.8504    20.9894    37.8493 C.ar  1 Q1N1  -0.1500 
  8 H7       5.4736    21.0558    36.9698 H     1 Q1N1   0.1500 
  9 C8       3.4859    20.7369    37.7175 C.ar  1 Q1N1  -0.1500 
 10 H8       3.0662    20.6151    36.7299 H     1 Q1N1   0.1500 
 11 C9       2.6454    20.6370    38.8337 C.ar  1 Q1N1  -0.1435 
 12 C10      1.1794    20.3239    38.6623 C.3   1 Q1N1  -0.0965 
 13 H101     0.9521    20.2181    37.6016 H     1 Q1N1   0.0800 
 14 H102     0.5833    21.1339    39.0826 H     1 Q1N1   0.0800 
 15 H103     0.9438    19.3935    39.1790 H     1 Q1N1   0.0800 
 16 C11     -1.4645    17.2251    45.9615 C.ar  1 Q1N1   0.4100 
 17 C12     -2.2228    16.8344    47.0594 C.ar  1 Q1N1  -0.1500 
 18 H12     -2.7807    17.5452    47.6509 H     1 Q1N1   0.1500 
 19 C13     -2.2207    15.4611    47.3539 C.ar  1 Q1N1   0.4100 
 20 C14     -0.8317    15.0690    45.5791 C.ar  1 Q1N1   0.4765 
 21 C15     -0.0385    14.0926    44.7692 C.3   1 Q1N1  -0.0965 
 22 H151    -0.1577    13.0928    45.1867 H     1 Q1N1   0.0800 
 23 H152     1.0147    14.3726    44.7919 H     1 Q1N1   0.0800 
 24 H153    -0.3945    14.1010    43.7391 H     1 Q1N1   0.0800 
 25 C16     -3.6784    15.7600    49.3730 C.3   1 Q1N1   0.2091 
 26 H161    -3.7550    16.7803    48.9973 H     1 Q1N1   0.0800 
 27 H162    -3.1116    15.7573    50.3041 H     1 Q1N1   0.0800 
 28 C19     -2.9626    13.5077    48.7553 C.3   1 Q1N1   0.2091 
 29 H191    -2.3306    13.3823    49.6345 H     1 Q1N1   0.0800 
 30 H192    -2.5522    12.9296    47.9274 H     1 Q1N1   0.0800 
 31 C20     -6.3268    13.3186    50.4667 C.3   1 Q1N1   0.3430 
 32 H201    -6.3027    12.2302    50.4126 H     1 Q1N1   0.0800 
 33 H202    -7.0466    13.7025    49.7438 H     1 Q1N1   0.0800 
 34 C21     -6.7959    13.7179    51.8673 C.3   1 Q1N1   0.1200 
 35 H211    -6.2437    14.6039    52.1807 H     1 Q1N1   0.0800 
 36 H212    -6.5851    12.8971    52.5529 H     1 Q1N1   0.0800 
 37 N       -1.3134    18.5803    45.6233 N.pl3 1 Q1N1  -0.5840 
 38 H       -1.8263    19.2229    46.2099 H     1 Q1N1   0.4000 
 39 C       -0.5892    19.1657    44.6350 C.2   1 Q1N1   0.4621 
 40 N1      -0.6818    20.4298    44.3291 N.2   1 Q1N1  -0.5653 
 41 S        0.5686    18.2987    43.6747 S.3   1 Q1N1  -0.0800 
 42 N2       2.3656    20.8137    41.2425 N.am  1 Q1N1  -0.5470 
 43 H2       2.0670    21.6873    41.6522 H     1 Q1N1   0.3700 
 44 C4       3.2141    20.8250    40.1014 C.ar  1 Q1N1   0.1170 
 45 C5       4.5856    21.0753    40.2199 C.ar  1 Q1N1   0.1770 
 46 C6       5.4080    21.1553    39.1051 C.ar  1 Q1N1  -0.1500 
 47 H6       6.4657    21.3438    39.2155 H     1 Q1N1   0.1500 
 48 CL       5.2728    21.3686    41.7937 Cl    1 Q1N1  -0.1770 
 49 O        2.4386    18.5550    41.5091 O.2   1 Q1N1  -0.5700 
 50 N3      -1.5080    14.5909    46.6295 N.ar  1 Q1N1  -0.6200 
 51 N4      -0.7962    16.3505    45.2009 N.ar  1 Q1N1  -0.6200 
 52 N5      -2.9892    14.9277    48.3823 N.pl3 1 Q1N1  -0.8382 
 53 C17     -5.0634    15.2154    49.6288 C.3   1 Q1N1   0.3430 
 54 H171    -5.5556    15.8279    50.3842 H     1 Q1N1   0.0800 
 55 H172    -5.6382    15.2485    48.7032 H     1 Q1N1   0.0800 
 56 C18     -4.3603    12.9993    49.0716 C.3   1 Q1N1   0.3430 
 57 H181    -4.9663    13.0317    48.1661 H     1 Q1N1   0.0800 
 58 H182    -4.2951    11.9715    49.4284 H     1 Q1N1   0.0800 
 59 O1      -8.2172    14.0135    51.9192 O.3   1 Q1N1  -0.6800 
 60 H1      -8.4295    14.2609    52.8222 H     1 Q1N1   0.4000 
@<TRIPOS>BOND
  1   1   2  1   
  2   1   3  2   
  3   1  40  1   
  4   3   4  1   
  5   3  41  1   
  6   4  42  am  
  7   4  49  2   
  8   5   6  1   
  9   5  31  1   
 10   5  53  1   
 11   5  56  1   
 12   7   8  1   
 13   7   9  ar  
 14   7  46  ar  
 15   9  10  1   
 16   9  11  ar  
 17  11  12  1   
 18  11  44  ar  
 19  12  13  1   
 20  12  14  1   
 21  12  15  1   
 22  16  17  ar  
 23  16  37  1   
 24  16  51  ar  
 25  17  18  1   
 26  17  19  ar  
 27  19  50  ar  
 28  19  52  1   
 29  20  21  1   
 30  20  50  ar  
 31  20  51  ar  
 32  21  22  1   
 33  21  23  1   
 34  21  24  1   
 35  25  26  1   
 36  25  27  1   
 37  25  52  1   
 38  25  53  1   
 39  28  29  1   
 40  28  30  1   
 41  28  52  1   
 42  28  56  1   
 43  31  32  1   
 44  31  33  1   
 45  31  34  1   
 46  34  35  1   
 47  34  36  1   
 48  34  59  1   
 49  37  38  1   
 50  37  39  1   
 51  39  40  2   
 52  39  41  1   
 53  42  43  1   
 54  42  44  1   
 55  44  45  ar  
 56  45  46  ar  
 57  45  48  1   
 58  46  47  1   
 59  53  54  1   
 60  53  55  1   
 61  56  57  1   
 62  56  58  1   
 63  59  60  1   
@<TRIPOS>SUBSTRUCTURE
  1 Q1N1  51 GROUP 4 A **** 0

# MOE 2012.10 (io_trps.svl 2012.10)
