@<TRIPOS>MOLECULE
3sxr.A
330 220 110 0 0 
SMALL
USER_CHARGES


@<TRIPOS>ATOM
  1 O        0.4137    27.0466    33.7822 O.3     1 HOH   0.0000 
  2 H1       1.3737    27.0466    33.7822 H       1 HOH   0.0000 
  3 H2       0.1234    27.6936    34.4293 H       1 HOH   0.0000 
  4 O       -0.8671    -3.3072    22.7210 O.3     2 HOH   0.0000 
  5 H1       0.0929    -3.3072    22.7210 H       2 HOH   0.0000 
  6 H2      -1.1574    -2.6602    23.3681 H       2 HOH   0.0000 
  7 O       -6.1210     9.7405    33.8051 O.3     3 HOH   0.0000 
  8 H1      -5.1610     9.7405    33.8051 H       3 HOH   0.0000 
  9 H2      -6.4113    10.3876    34.4522 H       3 HOH   0.0000 
 10 O       -6.9299    12.8601    45.1333 O.3     4 HOH  -0.8340 
 11 H1      -7.3900    13.6146    45.5011 H       4 HOH   0.4170 
 12 H2      -7.1558    12.8712    44.2032 H       4 HOH   0.4170 
 13 O      -15.2339     9.4656    13.0573 O.3     5 HOH   0.0000 
 14 H1     -14.2739     9.4656    13.0573 H       5 HOH   0.0000 
 15 H2     -15.5242    10.1126    13.7044 H       5 HOH   0.0000 
 16 O       -9.0332     7.1801    22.7166 O.3     6 HOH   0.0000 
 17 H1      -8.0732     7.1801    22.7166 H       6 HOH   0.0000 
 18 H2      -9.3235     7.8271    23.3637 H       6 HOH   0.0000 
 19 O      -10.4548     2.0511    39.6649 O.3     7 HOH   0.0000 
 20 H1      -9.4948     2.0511    39.6649 H       7 HOH   0.0000 
 21 H2     -10.7450     2.6981    40.3119 H       7 HOH   0.0000 
 22 O       -3.4035    32.5784    19.0888 O.3     8 HOH   0.0000 
 23 H1      -2.4435    32.5784    19.0888 H       8 HOH   0.0000 
 24 H2      -3.6938    33.2254    19.7358 H       8 HOH   0.0000 
 25 O       -2.2353    10.8075    25.5411 O.3     9 HOH   0.0000 
 26 H1      -1.2753    10.8075    25.5411 H       9 HOH   0.0000 
 27 H2      -2.5255    11.4546    26.1882 H       9 HOH   0.0000 
 28 O       -4.0484    25.7530    17.7449 O.3    10 HOH   0.0000 
 29 H1      -3.0884    25.7530    17.7449 H      10 HOH   0.0000 
 30 H2      -4.3387    26.4000    18.3919 H      10 HOH   0.0000 
 31 O       11.1976    13.7166    25.1209 O.3    11 HOH   0.0000 
 32 H1      12.1576    13.7166    25.1209 H      11 HOH   0.0000 
 33 H2      10.9074    14.3636    25.7679 H      11 HOH   0.0000 
 34 O        4.0453     7.8594    43.5397 O.3    12 HOH   0.0000 
 35 H1       5.0053     7.8594    43.5397 H      12 HOH   0.0000 
 36 H2       3.7550     8.5065    44.1867 H      12 HOH   0.0000 
 37 O       -0.8867    32.8289    14.4018 O.3    13 HOH   0.0000 
 38 H1       0.0733    32.8289    14.4018 H      13 HOH   0.0000 
 39 H2      -1.1770    33.4759    15.0489 H      13 HOH   0.0000 
 40 O        8.3896    29.0317    55.4602 O.3    14 HOH   0.0000 
 41 H1       9.3496    29.0317    55.4602 H      14 HOH   0.0000 
 42 H2       8.0994    29.6788    56.1072 H      14 HOH   0.0000 
 43 O        2.2703    14.9781     5.2261 O.3    15 HOH   0.0000 
 44 H1       3.2303    14.9781     5.2261 H      15 HOH   0.0000 
 45 H2       1.9801    15.6251     5.8731 H      15 HOH   0.0000 
 46 O        6.1330    23.5200    20.8779 O.3    16 HOH   0.0000 
 47 H1       7.0930    23.5200    20.8779 H      16 HOH   0.0000 
 48 H2       5.8427    24.1670    21.5250 H      16 HOH   0.0000 
 49 O        1.7603    -5.7709    19.2138 O.3    17 HOH   0.0000 
 50 H1       2.7203    -5.7709    19.2138 H      17 HOH   0.0000 
 51 H2       1.4701    -5.1239    19.8609 H      17 HOH   0.0000 
 52 O      -21.6864    10.8199    41.5931 O.3    18 HOH   0.0000 
 53 H1     -20.7264    10.8199    41.5931 H      18 HOH   0.0000 
 54 H2     -21.9767    11.4670    42.2401 H      18 HOH   0.0000 
 55 O      -24.1504    16.1376    34.8181 O.3    19 HOH   0.0000 
 56 H1     -23.1904    16.1376    34.8181 H      19 HOH   0.0000 
 57 H2     -24.4407    16.7846    35.4652 H      19 HOH   0.0000 
 58 O      -12.9939    24.0486    13.7027 O.3    20 HOH   0.0000 
 59 H1     -12.0339    24.0486    13.7027 H      20 HOH   0.0000 
 60 H2     -13.2842    24.6956    14.3498 H      20 HOH   0.0000 
 61 O        2.0217    10.8292    22.5143 O.3    21 HOH   0.0000 
 62 H1       2.9817    10.8292    22.5143 H      21 HOH   0.0000 
 63 H2       1.7315    11.4763    23.1613 H      21 HOH   0.0000 
 64 O      -28.6248    13.5261    45.4590 O.3    22 HOH   0.0000 
 65 H1     -27.6648    13.5261    45.4590 H      22 HOH   0.0000 
 66 H2     -28.9151    14.1731    46.1061 H      22 HOH   0.0000 
 67 O        4.6315     7.3749    39.4316 O.3    23 HOH   0.0000 
 68 H1       5.5915     7.3749    39.4316 H      23 HOH   0.0000 
 69 H2       4.3412     8.0220    40.0786 H      23 HOH   0.0000 
 70 O        3.2800     5.9673    27.2144 O.3    24 HOH   0.0000 
 71 H1       4.2400     5.9673    27.2144 H      24 HOH   0.0000 
 72 H2       2.9897     6.6144    27.8615 H      24 HOH   0.0000 
 73 O      -13.8484     6.8100    22.4074 O.3    25 HOH   0.0000 
 74 H1     -12.8884     6.8100    22.4074 H      25 HOH   0.0000 
 75 H2     -14.1387     7.4571    23.0545 H      25 HOH   0.0000 
 76 O       -4.5372    13.2151    21.3885 O.3    26 HOH   0.0000 
 77 H1      -3.5772    13.2151    21.3885 H      26 HOH   0.0000 
 78 H2      -4.8275    13.8621    22.0355 H      26 HOH   0.0000 
 79 O      -10.2156    29.2493    22.8111 O.3    27 HOH   0.0000 
 80 H1      -9.2556    29.2493    22.8111 H      27 HOH   0.0000 
 81 H2     -10.5058    29.8964    23.4581 H      27 HOH   0.0000 
 82 O       -0.8158    28.6102    54.6359 O.3    28 HOH   0.0000 
 83 H1       0.1442    28.6102    54.6359 H      28 HOH   0.0000 
 84 H2      -1.1061    29.2573    55.2829 H      28 HOH   0.0000 
 85 O       -6.0843    13.0761     9.8819 O.3    29 HOH   0.0000 
 86 H1      -5.1243    13.0761     9.8819 H      29 HOH   0.0000 
 87 H2      -6.3746    13.7232    10.5289 H      29 HOH   0.0000 
 88 O      -28.4554    20.7445    37.4792 O.3    30 HOH   0.0000 
 89 H1     -27.4954    20.7445    37.4792 H      30 HOH   0.0000 
 90 H2     -28.7457    21.3915    38.1262 H      30 HOH   0.0000 
 91 O      -25.5090    13.9201    33.8814 O.3    31 HOH   0.0000 
 92 H1     -24.5490    13.9201    33.8814 H      31 HOH   0.0000 
 93 H2     -25.7993    14.5672    34.5284 H      31 HOH   0.0000 
 94 O        5.0713    13.8461    21.8162 O.3    32 HOH   0.0000 
 95 H1       6.0313    13.8461    21.8162 H      32 HOH   0.0000 
 96 H2       4.7810    14.4932    22.4632 H      32 HOH   0.0000 
 97 O      -30.6003    12.0370    29.1104 O.3    33 HOH   0.0000 
 98 H1     -29.6403    12.0370    29.1104 H      33 HOH   0.0000 
 99 H2     -30.8906    12.6841    29.7575 H      33 HOH   0.0000 
100 O        1.1619    11.8004    34.1266 O.3    34 HOH   0.0000 
101 H1       2.1219    11.8004    34.1266 H      34 HOH   0.0000 
102 H2       0.8716    12.4474    34.7737 H      34 HOH   0.0000 
103 O       17.2464    29.2824    44.4013 O.3    35 HOH   0.0000 
104 H1      18.2064    29.2824    44.4013 H      35 HOH   0.0000 
105 H2      16.9562    29.9294    45.0484 H      35 HOH   0.0000 
106 O       -1.9077    29.1443    36.0567 O.3    36 HOH   0.0000 
107 H1      -0.9477    29.1443    36.0567 H      36 HOH   0.0000 
108 H2      -2.1980    29.7913    36.7037 H      36 HOH   0.0000 
109 O       -3.2192    -2.0927    16.0092 O.3    37 HOH   0.0000 
110 H1      -2.2592    -2.0927    16.0092 H      37 HOH   0.0000 
111 H2      -3.5094    -1.4456    16.6562 H      37 HOH   0.0000 
112 O        5.3498    23.7786    25.0454 O.3    38 HOH   0.0000 
113 H1       6.3098    23.7786    25.0454 H      38 HOH   0.0000 
114 H2       5.0595    24.4257    25.6924 H      38 HOH   0.0000 
115 O      -21.6036     6.5315    35.5035 O.3    39 HOH   0.0000 
116 H1     -20.6436     6.5315    35.5035 H      39 HOH   0.0000 
117 H2     -21.8939     7.1786    36.1505 H      39 HOH   0.0000 
118 O        5.8901    23.3167    30.4509 O.3    40 HOH   0.0000 
119 H1       6.8501    23.3167    30.4509 H      40 HOH   0.0000 
120 H2       5.5998    23.9638    31.0980 H      40 HOH   0.0000 
121 O        1.4081    29.7018    36.0109 O.3    41 HOH   0.0000 
122 H1       2.3681    29.7018    36.0109 H      41 HOH   0.0000 
123 H2       1.1178    30.3489    36.6579 H      41 HOH   0.0000 
124 O        7.1212    23.2093    27.4165 O.3    42 HOH   0.0000 
125 H1       8.0812    23.2093    27.4165 H      42 HOH   0.0000 
126 H2       6.8309    23.8564    28.0635 H      42 HOH   0.0000 
127 O       -9.2221    21.7531    12.8608 O.3    43 HOH   0.0000 
128 H1      -8.2621    21.7531    12.8608 H      43 HOH   0.0000 
129 H2      -9.5124    22.4001    13.5078 H      43 HOH   0.0000 
130 O      -18.0658    14.9787    15.0306 O.3    44 HOH   0.0000 
131 H1     -17.1058    14.9787    15.0306 H      44 HOH   0.0000 
132 H2     -18.3561    15.6258    15.6776 H      44 HOH   0.0000 
133 O      -16.4991     9.6413    50.3453 O.3    45 HOH   0.0000 
134 H1     -15.5391     9.6413    50.3453 H      45 HOH   0.0000 
135 H2     -16.7894    10.2883    50.9924 H      45 HOH   0.0000 
136 O      -19.4412    21.7593    20.9254 O.3    46 HOH   0.0000 
137 H1     -18.4812    21.7593    20.9254 H      46 HOH   0.0000 
138 H2     -19.7315    22.4063    21.5724 H      46 HOH   0.0000 
139 O        0.1375     8.1937    22.1107 O.3    47 HOH   0.0000 
140 H1       1.0975     8.1937    22.1107 H      47 HOH   0.0000 
141 H2      -0.1528     8.8408    22.7577 H      47 HOH   0.0000 
142 O       21.7597    19.8233    31.2894 O.3    48 HOH   0.0000 
143 H1      22.7197    19.8233    31.2894 H      48 HOH   0.0000 
144 H2      21.4694    20.4703    31.9365 H      48 HOH   0.0000 
145 O        7.1913     6.9629    39.0785 O.3    49 HOH   0.0000 
146 H1       8.1513     6.9629    39.0785 H      49 HOH   0.0000 
147 H2       6.9011     7.6099    39.7256 H      49 HOH   0.0000 
148 O       -2.5547    35.8189    27.7504 O.3    50 HOH   0.0000 
149 H1      -1.5947    35.8189    27.7504 H      50 HOH   0.0000 
150 H2      -2.8450    36.4659    28.3974 H      50 HOH   0.0000 
151 O       -3.9784    15.2967    24.9414 O.3    51 HOH   0.0000 
152 H1      -3.0184    15.2967    24.9414 H      51 HOH   0.0000 
153 H2      -4.2687    15.9437    25.5885 H      51 HOH   0.0000 
154 O      -16.0190     6.6765    43.9481 O.3    52 HOH   0.0000 
155 H1     -15.0590     6.6765    43.9481 H      52 HOH   0.0000 
156 H2     -16.3093     7.3235    44.5952 H      52 HOH   0.0000 
157 O       -8.9402     6.4266    34.0740 O.3    53 HOH   0.0000 
158 H1      -7.9802     6.4266    34.0740 H      53 HOH   0.0000 
159 H2      -9.2304     7.0737    34.7211 H      53 HOH   0.0000 
160 O        6.0891    20.7397    26.6431 O.3    54 HOH   0.0000 
161 H1       7.0491    20.7397    26.6431 H      54 HOH   0.0000 
162 H2       5.7989    21.3868    27.2902 H      54 HOH   0.0000 
163 O      -23.0581     2.5372    31.2815 O.3    55 HOH   0.0000 
164 H1     -22.0981     2.5372    31.2815 H      55 HOH   0.0000 
165 H2     -23.3484     3.1843    31.9285 H      55 HOH   0.0000 
166 O       -0.3747    20.9069     8.4536 O.3    56 HOH   0.0000 
167 H1       0.5853    20.9069     8.4536 H      56 HOH   0.0000 
168 H2      -0.6650    21.5539     9.1006 H      56 HOH   0.0000 
169 O      -18.6488     2.3108    19.7861 O.3    57 HOH   0.0000 
170 H1     -17.6888     2.3108    19.7861 H      57 HOH   0.0000 
171 H2     -18.9391     2.9578    20.4332 H      57 HOH   0.0000 
172 O       11.8553    16.2082    53.5794 O.3    58 HOH   0.0000 
173 H1      12.8153    16.2082    53.5794 H      58 HOH   0.0000 
174 H2      11.5650    16.8553    54.2264 H      58 HOH   0.0000 
175 O      -11.6981     0.5151    35.6946 O.3    59 HOH   0.0000 
176 H1     -10.7381     0.5151    35.6946 H      59 HOH   0.0000 
177 H2     -11.9883     1.1621    36.3416 H      59 HOH   0.0000 
178 O       14.4285    39.6271    40.9265 O.3    60 HOH   0.0000 
179 H1      15.3885    39.6271    40.9265 H      60 HOH   0.0000 
180 H2      14.1382    40.2742    41.5736 H      60 HOH   0.0000 
181 O      -23.8754    12.4330    48.5658 O.3    61 HOH   0.0000 
182 H1     -22.9154    12.4330    48.5658 H      61 HOH   0.0000 
183 H2     -24.1656    13.0800    49.2128 H      61 HOH   0.0000 
184 O        2.2748    24.0766    53.7996 O.3    62 HOH   0.0000 
185 H1       3.2348    24.0766    53.7996 H      62 HOH   0.0000 
186 H2       1.9845    24.7236    54.4466 H      62 HOH   0.0000 
187 O        1.4439    10.9235    31.2013 O.3    63 HOH   0.0000 
188 H1       2.4039    10.9235    31.2013 H      63 HOH   0.0000 
189 H2       1.1536    11.5705    31.8483 H      63 HOH   0.0000 
190 O       -9.4148    14.6789    49.0289 O.3    64 HOH  -0.8340 
191 H1      -9.5228    14.5792    49.9747 H      64 HOH   0.4170 
192 H2      -9.5784    15.6077    48.8653 H      64 HOH   0.4170 
193 O      -15.5726    21.7252    39.7533 O.3    65 HOH   0.0000 
194 H1     -14.6126    21.7252    39.7533 H      65 HOH   0.0000 
195 H2     -15.8629    22.3722    40.4003 H      65 HOH   0.0000 
196 O        2.6801     8.9098    17.5331 O.3    66 HOH   0.0000 
197 H1       3.6401     8.9098    17.5331 H      66 HOH   0.0000 
198 H2       2.3898     9.5569    18.1802 H      66 HOH   0.0000 
199 O      -28.4899     5.2366    32.3208 O.3    67 HOH   0.0000 
200 H1     -27.5299     5.2366    32.3208 H      67 HOH   0.0000 
201 H2     -28.7802     5.8837    32.9679 H      67 HOH   0.0000 
202 O       -0.6211    27.8467    47.3986 O.3    68 HOH   0.0000 
203 H1       0.3389    27.8467    47.3986 H      68 HOH   0.0000 
204 H2      -0.9114    28.4937    48.0456 H      68 HOH   0.0000 
205 O      -18.7551     4.3106    37.5279 O.3    69 HOH   0.0000 
206 H1     -17.7951     4.3106    37.5279 H      69 HOH   0.0000 
207 H2     -19.0454     4.9577    38.1749 H      69 HOH   0.0000 
208 O        1.0612    15.4223    35.9736 O.3    70 HOH  -0.8340 
209 H1       1.0886    15.2903    35.0260 H      70 HOH   0.4170 
210 H2       0.4733    14.7384    36.2943 H      70 HOH   0.4170 
211 O      -10.7477    30.2022    29.1718 O.3    71 HOH   0.0000 
212 H1      -9.7877    30.2022    29.1718 H      71 HOH   0.0000 
213 H2     -11.0380    30.8492    29.8189 H      71 HOH   0.0000 
214 O       -4.5336    20.9221     7.3612 O.3    72 HOH   0.0000 
215 H1      -3.5736    20.9221     7.3612 H      72 HOH   0.0000 
216 H2      -4.8239    21.5691     8.0082 H      72 HOH   0.0000 
217 O      -20.4777    -0.5654    32.6541 O.3    73 HOH   0.0000 
218 H1     -19.5177    -0.5654    32.6541 H      73 HOH   0.0000 
219 H2     -20.7679     0.0817    33.3011 H      73 HOH   0.0000 
220 O       -3.0430     3.8208    26.7152 O.3    74 HOH   0.0000 
221 H1      -2.0830     3.8208    26.7152 H      74 HOH   0.0000 
222 H2      -3.3333     4.4678    27.3623 H      74 HOH   0.0000 
223 O       -1.1625    12.1376    22.7030 O.3    75 HOH   0.0000 
224 H1      -0.2025    12.1376    22.7030 H      75 HOH   0.0000 
225 H2      -1.4528    12.7847    23.3501 H      75 HOH   0.0000 
226 O      -20.9515    25.7432    20.3453 O.3    76 HOH   0.0000 
227 H1     -19.9915    25.7432    20.3453 H      76 HOH   0.0000 
228 H2     -21.2418    26.3902    20.9924 H      76 HOH   0.0000 
229 O      -23.3996    22.3194    36.7707 O.3    77 HOH   0.0000 
230 H1     -22.4396    22.3194    36.7707 H      77 HOH   0.0000 
231 H2     -23.6899    22.9664    37.4178 H      77 HOH   0.0000 
232 O       16.2763    26.3740    27.2211 O.3    78 HOH   0.0000 
233 H1      17.2363    26.3740    27.2211 H      78 HOH   0.0000 
234 H2      15.9860    27.0211    27.8682 H      78 HOH   0.0000 
235 O      -15.9174    22.5066    14.3355 O.3    79 HOH   0.0000 
236 H1     -14.9574    22.5066    14.3355 H      79 HOH   0.0000 
237 H2     -16.2076    23.1536    14.9825 H      79 HOH   0.0000 
238 O      -17.5701    20.5516    40.9344 O.3    80 HOH   0.0000 
239 H1     -16.6101    20.5516    40.9344 H      80 HOH   0.0000 
240 H2     -17.8604    21.1986    41.5814 H      80 HOH   0.0000 
241 O      -22.1782    13.9826    19.1752 O.3    81 HOH   0.0000 
242 H1     -21.2182    13.9826    19.1752 H      81 HOH   0.0000 
243 H2     -22.4685    14.6297    19.8223 H      81 HOH   0.0000 
244 O      -17.8902    12.1382    16.7047 O.3    82 HOH   0.0000 
245 H1     -16.9302    12.1382    16.7047 H      82 HOH   0.0000 
246 H2     -18.1805    12.7852    17.3517 H      82 HOH   0.0000 
247 O       -2.9540    24.6707    54.7061 O.3    83 HOH   0.0000 
248 H1      -1.9940    24.6707    54.7061 H      83 HOH   0.0000 
249 H2      -3.2443    25.3178    55.3531 H      83 HOH   0.0000 
250 O       11.9182    15.0739    27.9296 O.3    84 HOH   0.0000 
251 H1      12.8782    15.0739    27.9296 H      84 HOH   0.0000 
252 H2      11.6279    15.7210    28.5766 H      84 HOH   0.0000 
253 O        1.2423    32.6050    21.9243 O.3    85 HOH   0.0000 
254 H1       2.2023    32.6050    21.9243 H      85 HOH   0.0000 
255 H2       0.9520    33.2520    22.5714 H      85 HOH   0.0000 
256 O       19.9469    32.7759    39.0554 O.3    86 HOH   0.0000 
257 H1      20.9069    32.7759    39.0554 H      86 HOH   0.0000 
258 H2      19.6566    33.4230    39.7024 H      86 HOH   0.0000 
259 O       -8.4391    18.0992    51.6753 O.3    87 HOH  -0.8340 
260 H1      -8.6737    19.0263    51.6351 H      87 HOH   0.4170 
261 H2      -8.7799    17.7298    50.8607 H      87 HOH   0.4170 
262 O      -32.2245    14.1130    26.5098 O.3    88 HOH   0.0000 
263 H1     -31.2645    14.1130    26.5098 H      88 HOH   0.0000 
264 H2     -32.5148    14.7601    27.1568 H      88 HOH   0.0000 
265 O        0.9682    11.3204     7.1254 O.3    89 HOH   0.0000 
266 H1       1.9282    11.3204     7.1254 H      89 HOH   0.0000 
267 H2       0.6779    11.9674     7.7725 H      89 HOH   0.0000 
268 O       -1.5330    12.3589     7.1752 O.3    90 HOH   0.0000 
269 H1      -0.5730    12.3589     7.1752 H      90 HOH   0.0000 
270 H2      -1.8233    13.0060     7.8223 H      90 HOH   0.0000 
271 O        8.2424    28.2925    57.9583 O.3    91 HOH   0.0000 
272 H1       9.2024    28.2925    57.9583 H      91 HOH   0.0000 
273 H2       7.9522    28.9395    58.6054 H      91 HOH   0.0000 
274 O      -25.7461     2.4779    30.2873 O.3    92 HOH   0.0000 
275 H1     -24.7861     2.4779    30.2873 H      92 HOH   0.0000 
276 H2     -26.0363     3.1249    30.9343 H      92 HOH   0.0000 
277 O      -30.7505    14.8035    28.6216 O.3    93 HOH   0.0000 
278 H1     -29.7905    14.8035    28.6216 H      93 HOH   0.0000 
279 H2     -31.0407    15.4506    29.2687 H      93 HOH   0.0000 
280 O       -2.1658    14.6256     7.5141 O.3    94 HOH   0.0000 
281 H1      -1.2058    14.6256     7.5141 H      94 HOH   0.0000 
282 H2      -2.4561    15.2726     8.1611 H      94 HOH   0.0000 
283 O       -6.9822    24.3621    47.3675 O.3    95 HOH   0.0000 
284 H1      -6.0222    24.3621    47.3675 H      95 HOH   0.0000 
285 H2      -7.2724    25.0091    48.0145 H      95 HOH   0.0000 
286 O       -4.4714     7.5388    34.1873 O.3    96 HOH   0.0000 
287 H1      -3.5114     7.5388    34.1873 H      96 HOH   0.0000 
288 H2      -4.7616     8.1859    34.8344 H      96 HOH   0.0000 
289 O       -7.0361     6.4313    21.4471 O.3    97 HOH   0.0000 
290 H1      -6.0761     6.4313    21.4471 H      97 HOH   0.0000 
291 H2      -7.3263     7.0783    22.0942 H      97 HOH   0.0000 
292 O       -1.5388    34.8815    31.8869 O.3    98 HOH   0.0000 
293 H1      -0.5788    34.8815    31.8869 H      98 HOH   0.0000 
294 H2      -1.8290    35.5285    32.5340 H      98 HOH   0.0000 
295 O       -3.6329    35.9610    30.2066 O.3    99 HOH   0.0000 
296 H1      -2.6729    35.9610    30.2066 H      99 HOH   0.0000 
297 H2      -3.9231    36.6081    30.8536 H      99 HOH   0.0000 
298 O        0.6173     3.9432    25.5357 O.3   100 HOH   0.0000 
299 H1       1.5773     3.9432    25.5357 H     100 HOH   0.0000 
300 H2       0.3270     4.5902    26.1828 H     100 HOH   0.0000 
301 O        0.4615     2.9714    28.1317 O.3   101 HOH   0.0000 
302 H1       1.4215     2.9714    28.1317 H     101 HOH   0.0000 
303 H2       0.1713     3.6185    28.7788 H     101 HOH   0.0000 
304 O        2.4327    23.1872    11.6289 O.3   102 HOH   0.0000 
305 H1       3.3927    23.1872    11.6289 H     102 HOH   0.0000 
306 H2       2.1425    23.8343    12.2759 H     102 HOH   0.0000 
307 O      -21.0398     5.7238    38.0806 O.3   103 HOH   0.0000 
308 H1     -20.0798     5.7238    38.0806 H     103 HOH   0.0000 
309 H2     -21.3301     6.3709    38.7276 H     103 HOH   0.0000 
310 O       14.0704    13.9400    38.9878 O.3   104 HOH   0.0000 
311 H1      15.0304    13.9400    38.9878 H     104 HOH   0.0000 
312 H2      13.7801    14.5871    39.6348 H     104 HOH   0.0000 
313 O       -6.3526     5.4036    33.8683 O.3   105 HOH   0.0000 
314 H1      -5.3926     5.4036    33.8683 H     105 HOH   0.0000 
315 H2      -6.6428     6.0506    34.5154 H     105 HOH   0.0000 
316 O       -3.8085    12.6485    24.3930 O.3   106 HOH   0.0000 
317 H1      -2.8485    12.6485    24.3930 H     106 HOH   0.0000 
318 H2      -4.0988    13.2955    25.0401 H     106 HOH   0.0000 
319 O      -24.1966     9.1455    19.7381 O.3   107 HOH   0.0000 
320 H1     -23.2366     9.1455    19.7381 H     107 HOH   0.0000 
321 H2     -24.4869     9.7925    20.3852 H     107 HOH   0.0000 
322 O      -20.2423    19.2258    20.6835 O.3   108 HOH   0.0000 
323 H1     -19.2823    19.2258    20.6835 H     108 HOH   0.0000 
324 H2     -20.5326    19.8728    21.3305 H     108 HOH   0.0000 
325 O      -22.8575    18.7779    20.5192 O.3   109 HOH   0.0000 
326 H1     -21.8975    18.7779    20.5192 H     109 HOH   0.0000 
327 H2     -23.1478    19.4250    21.1662 H     109 HOH   0.0000 
328 O        2.5335    24.5940    13.8294 O.3   110 HOH   0.0000 
329 H1       3.4935    24.5940    13.8294 H     110 HOH   0.0000 
330 H2       2.2432    25.2410    14.4765 H     110 HOH   0.0000 
@<TRIPOS>BOND
  1   1   2  1   
  2   1   3  1   
  3   4   5  1   
  4   4   6  1   
  5   7   8  1   
  6   7   9  1   
  7  10  11  1   
  8  10  12  1   
  9  13  14  1   
 10  13  15  1   
 11  16  17  1   
 12  16  18  1   
 13  19  20  1   
 14  19  21  1   
 15  22  23  1   
 16  22  24  1   
 17  25  26  1   
 18  25  27  1   
 19  28  29  1   
 20  28  30  1   
 21  31  32  1   
 22  31  33  1   
 23  34  35  1   
 24  34  36  1   
 25  37  38  1   
 26  37  39  1   
 27  40  41  1   
 28  40  42  1   
 29  43  44  1   
 30  43  45  1   
 31  46  47  1   
 32  46  48  1   
 33  49  50  1   
 34  49  51  1   
 35  52  53  1   
 36  52  54  1   
 37  55  56  1   
 38  55  57  1   
 39  58  59  1   
 40  58  60  1   
 41  61  62  1   
 42  61  63  1   
 43  64  65  1   
 44  64  66  1   
 45  67  68  1   
 46  67  69  1   
 47  70  71  1   
 48  70  72  1   
 49  73  74  1   
 50  73  75  1   
 51  76  77  1   
 52  76  78  1   
 53  79  80  1   
 54  79  81  1   
 55  82  83  1   
 56  82  84  1   
 57  85  86  1   
 58  85  87  1   
 59  88  89  1   
 60  88  90  1   
 61  91  92  1   
 62  91  93  1   
 63  94  95  1   
 64  94  96  1   
 65  97  98  1   
 66  97  99  1   
 67 100 101  1   
 68 100 102  1   
 69 103 104  1   
 70 103 105  1   
 71 106 107  1   
 72 106 108  1   
 73 109 110  1   
 74 109 111  1   
 75 112 113  1   
 76 112 114  1   
 77 115 116  1   
 78 115 117  1   
 79 118 119  1   
 80 118 120  1   
 81 121 122  1   
 82 121 123  1   
 83 124 125  1   
 84 124 126  1   
 85 127 128  1   
 86 127 129  1   
 87 130 131  1   
 88 130 132  1   
 89 133 134  1   
 90 133 135  1   
 91 136 137  1   
 92 136 138  1   
 93 139 140  1   
 94 139 141  1   
 95 142 143  1   
 96 142 144  1   
 97 145 146  1   
 98 145 147  1   
 99 148 149  1   
100 148 150  1   
101 151 152  1   
102 151 153  1   
103 154 155  1   
104 154 156  1   
105 157 158  1   
106 157 159  1   
107 160 161  1   
108 160 162  1   
109 163 164  1   
110 163 165  1   
111 166 167  1   
112 166 168  1   
113 169 170  1   
114 169 171  1   
115 172 173  1   
116 172 174  1   
117 175 176  1   
118 175 177  1   
119 178 179  1   
120 178 180  1   
121 181 182  1   
122 181 183  1   
123 184 185  1   
124 184 186  1   
125 187 188  1   
126 187 189  1   
127 190 191  1   
128 190 192  1   
129 193 194  1   
130 193 195  1   
131 196 197  1   
132 196 198  1   
133 199 200  1   
134 199 201  1   
135 202 203  1   
136 202 204  1   
137 205 206  1   
138 205 207  1   
139 208 209  1   
140 208 210  1   
141 211 212  1   
142 211 213  1   
143 214 215  1   
144 214 216  1   
145 217 218  1   
146 217 219  1   
147 220 221  1   
148 220 222  1   
149 223 224  1   
150 223 225  1   
151 226 227  1   
152 226 228  1   
153 229 230  1   
154 229 231  1   
155 232 233  1   
156 232 234  1   
157 235 236  1   
158 235 237  1   
159 238 239  1   
160 238 240  1   
161 241 242  1   
162 241 243  1   
163 244 245  1   
164 244 246  1   
165 247 248  1   
166 247 249  1   
167 250 251  1   
168 250 252  1   
169 253 254  1   
170 253 255  1   
171 256 257  1   
172 256 258  1   
173 259 260  1   
174 259 261  1   
175 262 263  1   
176 262 264  1   
177 265 266  1   
178 265 267  1   
179 268 269  1   
180 268 270  1   
181 271 272  1   
182 271 273  1   
183 274 275  1   
184 274 276  1   
185 277 278  1   
186 277 279  1   
187 280 281  1   
188 280 282  1   
189 283 284  1   
190 283 285  1   
191 286 287  1   
192 286 288  1   
193 289 290  1   
194 289 291  1   
195 292 293  1   
196 292 294  1   
197 295 296  1   
198 295 297  1   
199 298 299  1   
200 298 300  1   
201 301 302  1   
202 301 303  1   
203 304 305  1   
204 304 306  1   
205 307 308  1   
206 307 309  1   
207 310 311  1   
208 310 312  1   
209 313 314  1   
210 313 315  1   
211 316 317  1   
212 316 318  1   
213 319 320  1   
214 319 321  1   
215 322 323  1   
216 322 324  1   
217 325 326  1   
218 325 327  1   
219 328 329  1   
220 328 330  1   
@<TRIPOS>SUBSTRUCTURE
  1 HOH   1 GROUP 4 A **** 0
  2 HOH   4 GROUP 4 A **** 0
  3 HOH   7 GROUP 4 A **** 0
  4 HOH  10 GROUP 4 A **** 0
  5 HOH  13 GROUP 4 A **** 0
  6 HOH  16 GROUP 4 A **** 0
  7 HOH  19 GROUP 4 A **** 0
  8 HOH  22 GROUP 4 A **** 0
  9 HOH  25 GROUP 4 A **** 0
 10 HOH  28 GROUP 4 A **** 0
 11 HOH  31 GROUP 4 A **** 0
 12 HOH  34 GROUP 4 A **** 0
 13 HOH  37 GROUP 4 A **** 0
 14 HOH  40 GROUP 4 A **** 0
 15 HOH  43 GROUP 4 A **** 0
 16 HOH  46 GROUP 4 A **** 0
 17 HOH  49 GROUP 4 A **** 0
 18 HOH  52 GROUP 4 A **** 0
 19 HOH  55 GROUP 4 A **** 0
 20 HOH  58 GROUP 4 A **** 0
 21 HOH  61 GROUP 4 A **** 0
 22 HOH  64 GROUP 4 A **** 0
 23 HOH  67 GROUP 4 A **** 0
 24 HOH  70 GROUP 4 A **** 0
 25 HOH  73 GROUP 4 A **** 0
 26 HOH  76 GROUP 4 A **** 0
 27 HOH  79 GROUP 4 A **** 0
 28 HOH  82 GROUP 4 A **** 0
 29 HOH  85 GROUP 4 A **** 0
 30 HOH  88 GROUP 4 A **** 0
 31 HOH  91 GROUP 4 A **** 0
 32 HOH  94 GROUP 4 A **** 0
 33 HOH  97 GROUP 4 A **** 0
 34 HOH 100 GROUP 4 A **** 0
 35 HOH 103 GROUP 4 A **** 0
 36 HOH 106 GROUP 4 A **** 0
 37 HOH 109 GROUP 4 A **** 0
 38 HOH 112 GROUP 4 A **** 0
 39 HOH 115 GROUP 4 A **** 0
 40 HOH 118 GROUP 4 A **** 0
 41 HOH 121 GROUP 4 A **** 0
 42 HOH 124 GROUP 4 A **** 0
 43 HOH 127 GROUP 4 A **** 0
 44 HOH 130 GROUP 4 A **** 0
 45 HOH 133 GROUP 4 A **** 0
 46 HOH 136 GROUP 4 A **** 0
 47 HOH 139 GROUP 4 A **** 0
 48 HOH 142 GROUP 4 A **** 0
 49 HOH 145 GROUP 4 A **** 0
 50 HOH 148 GROUP 4 A **** 0
 51 HOH 151 GROUP 4 A **** 0
 52 HOH 154 GROUP 4 A **** 0
 53 HOH 157 GROUP 4 A **** 0
 54 HOH 160 GROUP 4 A **** 0
 55 HOH 163 GROUP 4 A **** 0
 56 HOH 166 GROUP 4 A **** 0
 57 HOH 169 GROUP 4 A **** 0
 58 HOH 172 GROUP 4 A **** 0
 59 HOH 175 GROUP 4 A **** 0
 60 HOH 178 GROUP 4 A **** 0
 61 HOH 181 GROUP 4 A **** 0
 62 HOH 184 GROUP 4 A **** 0
 63 HOH 187 GROUP 4 A **** 0
 64 HOH 190 GROUP 4 A **** 0
 65 HOH 193 GROUP 4 A **** 0
 66 HOH 196 GROUP 4 A **** 0
 67 HOH 199 GROUP 4 A **** 0
 68 HOH 202 GROUP 4 A **** 0
 69 HOH 205 GROUP 4 A **** 0
 70 HOH 208 GROUP 4 A **** 0
 71 HOH 211 GROUP 4 A **** 0
 72 HOH 214 GROUP 4 A **** 0
 73 HOH 217 GROUP 4 A **** 0
 74 HOH 220 GROUP 4 A **** 0
 75 HOH 223 GROUP 4 A **** 0
 76 HOH 226 GROUP 4 A **** 0
 77 HOH 229 GROUP 4 A **** 0
 78 HOH 232 GROUP 4 A **** 0
 79 HOH 235 GROUP 4 A **** 0
 80 HOH 238 GROUP 4 A **** 0
 81 HOH 241 GROUP 4 A **** 0
 82 HOH 244 GROUP 4 A **** 0
 83 HOH 247 GROUP 4 A **** 0
 84 HOH 250 GROUP 4 A **** 0
 85 HOH 253 GROUP 4 A **** 0
 86 HOH 256 GROUP 4 A **** 0
 87 HOH 259 GROUP 4 A **** 0
 88 HOH 262 GROUP 4 A **** 0
 89 HOH 265 GROUP 4 A **** 0
 90 HOH 268 GROUP 4 A **** 0
 91 HOH 271 GROUP 4 A **** 0
 92 HOH 274 GROUP 4 A **** 0
 93 HOH 277 GROUP 4 A **** 0
 94 HOH 280 GROUP 4 A **** 0
 95 HOH 283 GROUP 4 A **** 0
 96 HOH 286 GROUP 4 A **** 0
 97 HOH 289 GROUP 4 A **** 0
 98 HOH 292 GROUP 4 A **** 0
 99 HOH 295 GROUP 4 A **** 0
100 HOH 298 GROUP 4 A **** 0
101 HOH 301 GROUP 4 A **** 0
102 HOH 304 GROUP 4 A **** 0
103 HOH 307 GROUP 4 A **** 0
104 HOH 310 GROUP 4 A **** 0
105 HOH 313 GROUP 4 A **** 0
106 HOH 316 GROUP 4 A **** 0
107 HOH 319 GROUP 4 A **** 0
108 HOH 322 GROUP 4 A **** 0
109 HOH 325 GROUP 4 A **** 0
110 HOH 328 GROUP 4 A **** 0

# MOE 2012.10 (io_trps.svl 2012.10)
